<?xml version="1.0" encoding="UTF-8"?>

<!-- generated on Tue Apr  7 15:26:51 2020 by Eclipse SUMO duarouter Version v1_5_0+0572-38ea3d85a6
<configuration xmlns:xsi="http://www.w3.org/2001/XMLSchema-instance" xsi:noNamespaceSchemaLocation="http://sumo.dlr.de/xsd/duarouterConfiguration.xsd">

    <input>
        <net-file value="/home/rakha/sumo/tools/2020-04-07-15-26-45/osm.net.xml"/>
        <route-files value="/home/rakha/sumo/tools/2020-04-07-15-26-45/osm.passenger.trips.xml"/>
    </input>

    <output>
        <output-file value="/home/rakha/sumo/tools/2020-04-07-15-26-45/osm.passenger.trips.xml.tmp"/>
        <write-trips value="true"/>
    </output>

    <time>
        <begin value="0"/>
        <end value="3600.0"/>
    </time>

    <report>
        <no-warnings value="true"/>
        <ignore-errors value="true"/>
        <no-step-log value="true"/>
    </report>

</configuration>
-->

<routes xmlns:xsi="http://www.w3.org/2001/XMLSchema-instance" xsi:noNamespaceSchemaLocation="http://sumo.dlr.de/xsd/routes_file.xsd">
    <vType id="veh_passenger" vClass="passenger"/>
    <trip id="veh0" type="veh_passenger" depart="0.00" departLane="best" from="259232747#1" to="-125164999#1"/>
    <trip id="veh1" type="veh_passenger" depart="50.39" departLane="best" departSpeed="max" from="-259232752#1" to="-359963350"/>
    <trip id="veh2" type="veh_passenger" depart="100.78" departLane="best" departSpeed="max" from="259232753" to="259232752#1"/>
    <trip id="veh3" type="veh_passenger" depart="151.18" departLane="best" departSpeed="max" from="447818568" to="-125171274"/>
    <trip id="veh4" type="veh_passenger" depart="201.57" departLane="best" from="-756479432" to="-125164999#1"/>
    <trip id="veh5" type="veh_passenger" depart="251.96" departLane="best" from="-259232752#0" to="149724284"/>
    <trip id="veh6" type="veh_passenger" depart="302.35" departLane="best" departSpeed="max" from="-125286506" to="-259232753"/>
    <trip id="veh7" type="veh_passenger" depart="352.75" departLane="best" from="259232748#0" to="149724284"/>
    <trip id="veh8" type="veh_passenger" depart="403.14" departLane="best" from="-259232752#0" to="259232747#0"/>
    <trip id="veh9" type="veh_passenger" depart="453.53" departLane="best" from="364643504#0" to="-125164999#1"/>
    <trip id="veh10" type="veh_passenger" depart="503.92" departLane="best" from="364643504#0" to="259232752#1"/>
    <trip id="veh11" type="veh_passenger" depart="554.32" departLane="best" departSpeed="max" from="-586229390" to="-259232752#0"/>
    <trip id="veh12" type="veh_passenger" depart="604.71" departLane="best" from="57940902#1" to="-586229391#0"/>
    <trip id="veh13" type="veh_passenger" depart="655.10" departLane="best" departSpeed="max" from="-586229391#1" to="149724284"/>
    <trip id="veh14" type="veh_passenger" depart="705.49" departLane="best" departSpeed="max" from="-148911253" to="-359963350"/>
    <trip id="veh15" type="veh_passenger" depart="755.89" departLane="best" departSpeed="max" from="-148911253" to="-447818568"/>
    <trip id="veh16" type="veh_passenger" depart="806.28" departLane="best" departSpeed="max" from="-586229391#1" to="-259232753"/>
    <trip id="veh17" type="veh_passenger" depart="856.67" departLane="best" departSpeed="max" from="-259232752#1" to="586229391#1"/>
    <trip id="veh18" type="veh_passenger" depart="907.06" departLane="best" departSpeed="max" from="-149724284" to="364643505#0"/>
    <trip id="veh19" type="veh_passenger" depart="957.46" departLane="best" departSpeed="max" from="-149724284" to="120164119#3"/>
    <trip id="veh20" type="veh_passenger" depart="1007.85" departLane="best" from="756479432" to="259232751"/>
    <trip id="veh21" type="veh_passenger" depart="1058.24" departLane="best" departSpeed="max" from="125171274" to="259232752#1"/>
    <trip id="veh22" type="veh_passenger" depart="1108.63" departLane="best" from="-259232752#0" to="-125164999#1"/>
    <trip id="veh23" type="veh_passenger" depart="1159.03" departLane="best" from="-259232751" to="586229391#1"/>
    <trip id="veh24" type="veh_passenger" depart="1209.42" departLane="best" from="259232748#1" to="125286506"/>
    <trip id="veh25" type="veh_passenger" depart="1259.81" departLane="best" departSpeed="max" from="447818568" to="148911253"/>
    <trip id="veh26" type="veh_passenger" depart="1310.20" departLane="best" departSpeed="max" from="-259232752#1" to="-359963350"/>
    <trip id="veh27" type="veh_passenger" depart="1360.60" departLane="best" departSpeed="max" from="125171274" to="-359963350"/>
    <trip id="veh28" type="veh_passenger" depart="1410.99" departLane="best" departSpeed="max" from="-586229391#1" to="-359963350"/>
    <trip id="veh29" type="veh_passenger" depart="1461.38" departLane="best" departSpeed="max" from="-148911253" to="-125164999#1"/>
    <trip id="veh30" type="veh_passenger" depart="1511.77" departLane="best" departSpeed="max" from="-148911253" to="259232748#1"/>
    <trip id="veh31" type="veh_passenger" depart="1562.17" departLane="best" from="259232752#0" to="149724284"/>
    <trip id="veh32" type="veh_passenger" depart="1612.56" departLane="best" departSpeed="max" from="-148911253" to="125286506"/>
    <trip id="veh33" type="veh_passenger" depart="1662.95" departLane="best" from="120164119#3" to="586229391#1"/>
    <trip id="veh34" type="veh_passenger" depart="1713.34" departLane="best" departSpeed="max" from="447818568" to="586229390"/>
    <trip id="veh35" type="veh_passenger" depart="1763.74" departLane="best" departSpeed="max" from="-586229390" to="259232751"/>
    <trip id="veh36" type="veh_passenger" depart="1814.13" departLane="best" departSpeed="max" from="-148911253" to="364643512#0"/>
    <trip id="veh37" type="veh_passenger" depart="1864.52" departLane="best" departSpeed="max" from="359963350" to="-195843389"/>
    <trip id="veh38" type="veh_passenger" depart="1914.91" departLane="best" departSpeed="max" from="125164999#0" to="149724284"/>
    <trip id="veh39" type="veh_passenger" depart="1965.31" departLane="best" departSpeed="max" from="-259232752#1" to="586229390"/>
    <trip id="veh40" type="veh_passenger" depart="2015.70" departLane="best" from="-756479432" to="-259232753"/>
    <trip id="veh41" type="veh_passenger" depart="2066.09" departLane="best" from="756479432" to="259232752#0"/>
    <trip id="veh42" type="veh_passenger" depart="2116.48" departLane="best" from="120164119#1" to="149724284"/>
    <trip id="veh43" type="veh_passenger" depart="2166.88" departLane="best" departSpeed="max" from="-148911253" to="-359963350"/>
    <trip id="veh44" type="veh_passenger" depart="2217.27" departLane="best" departSpeed="max" from="-259232752#1" to="-359963350"/>
    <trip id="veh45" type="veh_passenger" depart="2267.66" departLane="best" from="-259232752#0" to="586229390"/>
    <trip id="veh46" type="veh_passenger" depart="2318.05" departLane="best" departSpeed="max" from="125164999#0" to="57940902#0"/>
    <trip id="veh47" type="veh_passenger" depart="2368.45" departLane="best" from="364643504#0" to="-259232753"/>
    <trip id="veh48" type="veh_passenger" depart="2418.84" departLane="best" departSpeed="max" from="-148911253" to="125286506"/>
    <trip id="veh49" type="veh_passenger" depart="2469.23" departLane="best" from="-756479432" to="148911253"/>
    <trip id="veh50" type="veh_passenger" depart="2519.62" departLane="best" departSpeed="max" from="259232753" to="259232752#1"/>
    <trip id="veh51" type="veh_passenger" depart="2570.02" departLane="best" departSpeed="max" from="-259232752#1" to="586229390"/>
    <trip id="veh52" type="veh_passenger" depart="2620.41" departLane="best" from="364643505#1" to="-259232753"/>
    <trip id="veh53" type="veh_passenger" depart="2670.80" departLane="best" from="120164119#3" to="125286506"/>
    <trip id="veh54" type="veh_passenger" depart="2721.19" departLane="best" from="57940902#1" to="756479432"/>
    <trip id="veh55" type="veh_passenger" depart="2771.59" departLane="best" departSpeed="max" from="-149724284" to="-447818568"/>
    <trip id="veh56" type="veh_passenger" depart="2821.98" departLane="best" departSpeed="max" from="-125286506" to="259232746"/>
    <trip id="veh57" type="veh_passenger" depart="2872.37" departLane="best" departSpeed="max" from="125164999#0" to="57941572"/>
    <trip id="veh58" type="veh_passenger" depart="2922.76" departLane="best" departSpeed="max" from="-149724284" to="586229391#1"/>
    <trip id="veh59" type="veh_passenger" depart="2973.16" departLane="best" departSpeed="max" from="447818568" to="-359963350"/>
    <trip id="veh60" type="veh_passenger" depart="3023.55" departLane="best" from="-252231665" to="364643504#0"/>
    <trip id="veh61" type="veh_passenger" depart="3073.94" departLane="best" departSpeed="max" from="-259232752#1" to="125286506"/>
    <trip id="veh62" type="veh_passenger" depart="3124.33" departLane="best" departSpeed="max" from="-259232752#1" to="586229391#0"/>
    <trip id="veh63" type="veh_passenger" depart="3174.73" departLane="best" departSpeed="max" from="-586229391#1" to="-259232752#0"/>
    <trip id="veh64" type="veh_passenger" depart="3225.12" departLane="best" from="364643505#0" to="259232752#1"/>
    <trip id="veh65" type="veh_passenger" depart="3275.51" departLane="best" from="259232748#0" to="-125164999#1"/>
    <trip id="veh66" type="veh_passenger" depart="3325.90" departLane="best" departSpeed="max" from="-149724284" to="-125171274"/>
    <trip id="veh67" type="veh_passenger" depart="3376.30" departLane="best" departSpeed="max" from="-148911253" to="149724284"/>
    <trip id="veh68" type="veh_passenger" depart="3426.69" departLane="best" departSpeed="max" from="-259232752#1" to="259232747#1"/>
    <trip id="veh69" type="veh_passenger" depart="3477.08" departLane="best" from="259232747#1" to="-359963350"/>
    <trip id="veh70" type="veh_passenger" depart="3527.47" departLane="best" departSpeed="max" from="125164999#0" to="586229390"/>
    <trip id="veh71" type="veh_passenger" depart="3577.87" departLane="best" from="259232747#1" to="-359963350"/>
</routes>
