<?xml version="1.0" encoding="UTF-8"?>

<!-- generated on Tue Apr  7 15:26:48 2020 by Eclipse SUMO polyconvert Version v1_5_0+0572-38ea3d85a6
<configuration xmlns:xsi="http://www.w3.org/2001/XMLSchema-instance" xsi:noNamespaceSchemaLocation="http://sumo.dlr.de/xsd/polyconvertConfiguration.xsd">

    <input>
        <net-file value="osm.net.xml"/>
        <osm-files value="osm_bbox.osm.xml"/>
        <osm.keep-full-type value="true"/>
        <type-file value="/home/rakha/sumo/data/typemap/osmPolyconvert.typ.xml"/>
    </input>

    <output>
        <output-file value="osm.poly.xml"/>
    </output>

    <processing>
        <poi-layer-offset value="5"/>
    </processing>

    <report>
        <verbose value="true"/>
    </report>

</configuration>
-->

<additional xmlns:xsi="http://www.w3.org/2001/XMLSchema-instance" xsi:noNamespaceSchemaLocation="http://sumo.dlr.de/xsd/additional_file.xsd">
    <location netOffset="-679795.25,882503.70" convBoundary="-353.94,0.00,720.41,812.69" origBoundary="112.628043,-7.980530,112.637792,-7.973187" projParameter="+proj=utm +zone=49 +ellps=WGS84 +datum=WGS84 +units=m +no_defs"/>

    <poly id="149724749" type="leisure.park" color="207,245,201" fill="1" layer="-2.00" shape="285.081486,431.640108 279.767310,428.829867 274.704476,425.454588 271.076671,422.527075 266.494731,418.088165 262.994367,413.932524 259.545758,408.925084 256.469413,403.263651 254.298947,398.063138 252.545501,392.374349 251.341460,386.218880 250.835706,381.000719 250.773398,376.400145 250.793867,373.214880 251.708001,367.404937 252.574277,363.431089 254.097798,358.381851 256.041139,353.552145 258.765450,348.265901 261.976255,343.331641 265.519775,338.893748 271.406161,333.075183 277.462865,328.505684 283.677857,324.930928 287.672744,323.112388 293.144480,321.166344 295.909223,320.524998 300.733776,319.410990 302.694887,319.071436 306.331907,318.758425 314.082338,318.716679 319.409666,319.281749 325.952880,320.638300 331.902943,322.550182 336.441999,324.511889 341.601733,327.300614 345.957134,330.214179 350.635804,334.022298 354.742233,338.098115 358.741612,342.981711 364.627483,350.954544 365.736596,355.407199 367.967105,361.846155 369.369741,368.034016 370.053177,373.572205 370.126797,381.026133 369.607733,386.370010 368.440391,392.269438 367.047951,397.008492 364.700639,402.835175 362.545293,407.024267 360.080461,411.015509 357.273112,414.820093 353.378504,419.690711 350.422138,422.058127 347.378273,424.602844 343.497480,427.394188 339.339926,429.899075 334.872492,432.106578 329.819820,434.084144 324.445718,435.631656 319.840862,436.545719 314.396888,437.153434 308.465762,437.243272 301.506433,436.607241 293.495230,434.836227 288.935737,433.283802 285.081486,431.640108"/>
    <poly id="149724833" type="building.yes" color="255,230,230" fill="1" layer="-1.00" shape="307.646752,386.316739 310.542922,385.453678 312.707861,383.686620 314.227927,380.550715 314.182111,377.332533 313.025497,374.804448 311.298831,373.097035 309.929514,372.538413 308.239950,371.848343 305.539032,371.903274 302.886460,373.030802 300.800316,375.206756 299.785861,377.953570 300.041456,381.248339 302.049435,384.392396 304.083310,385.722564 307.646752,386.316739"/>
    <poly id="317134991" type="leisure.park" color="207,245,201" fill="1" layer="-2.00" shape="569.064130,347.976754 585.768899,345.654344 593.608490,348.631492 597.202216,354.080725 597.585114,358.890169 595.256842,505.760936 592.487357,510.770893 587.656099,512.979863 572.078089,515.872898 569.064130,347.976754"/>
    <poly id="410384041" type="leisure.park" color="207,245,201" fill="1" layer="-2.00" shape="604.567274,309.680066 611.378905,209.142636 608.783914,205.326277 602.345405,205.351814 595.916868,205.111878 589.751229,210.002592 576.268723,315.930407 604.567274,309.680066"/>
    <poly id="410384042" type="leisure.park" color="207,245,201" fill="1" layer="-2.00" shape="560.186249,341.730053 563.972623,340.155626 567.025612,337.135288 568.402687,334.088416 568.432843,330.571317 566.852753,326.905767 563.249349,324.575402 559.442655,323.805257 379.079754,356.128532 381.185895,364.569780 382.479086,373.744187 491.049041,353.074843 560.186249,341.730053"/>
    <poly id="427915232" type="building.yes" color="255,230,230" fill="1" layer="-1.00" shape="142.851939,393.792657 148.017747,392.544602 142.907513,371.606757 137.741708,372.854812 142.851939,393.792657"/>
    <poly id="427915233" type="building.yes" color="255,230,230" fill="1" layer="-1.00" shape="126.537448,349.839735 133.016389,348.885098 131.068629,335.875581 124.589690,336.830218 126.537448,349.839735"/>
    <poly id="427915234" type="building.yes" color="255,230,230" fill="1" layer="-1.00" shape="146.657186,383.049735 150.776636,382.060190 153.342976,392.578837 165.756365,389.587864 160.309953,367.279951 147.907551,370.259821 148.916193,374.403204 144.785763,375.403851 146.657186,383.049735"/>
    <poly id="427915236" type="building.yes" color="255,230,230" fill="1" layer="-1.00" shape="198.121898,307.773146 207.284955,313.664868 210.736864,308.364689 201.573807,302.472967 198.121898,307.773146"/>
    <poly id="427915237" type="building.yes" color="255,230,230" fill="1" layer="-1.00" shape="195.108662,312.485426 200.690069,302.034078 190.713715,296.787033 185.143332,307.238336 195.108662,312.485426"/>
    <poly id="427915238" type="building.yes" color="255,230,230" fill="1" layer="-1.00" shape="114.723261,306.410937 113.409693,297.645822 100.462895,299.566108 101.776460,308.331223 114.723261,306.410937"/>
    <poly id="427915240" type="building.yes" color="255,230,230" fill="1" layer="-1.00" shape="106.725683,322.014567 116.840720,320.514688 114.723261,306.410937 104.619252,307.910773 106.725683,322.014567"/>
    <poly id="427915242" type="building.yes" color="255,230,230" fill="1" layer="-1.00" shape="106.459069,327.080946 117.885321,325.387867 117.149372,320.502408 105.723122,322.195487 106.459069,327.080946"/>
    <poly id="427915243" type="building.yes" color="255,230,230" fill="1" layer="-1.00" shape="176.542754,387.786708 193.384769,383.926613 187.215906,357.363589 170.373901,361.223684 176.542754,387.786708"/>
    <poly id="427915245" type="building.yes" color="255,230,230" fill="1" layer="-1.00" shape="215.728897,346.788329 220.446403,349.269146 224.189202,342.253567 209.219141,334.383026 205.487366,341.398559 210.028123,343.791599 208.698190,350.399481 204.626910,349.630354 202.714762,359.558439 206.708826,360.316811 205.584426,365.928510 199.366403,365.953113 199.396027,373.440388 216.848389,373.371333 216.818762,365.884057 211.879623,365.903601 212.777139,361.465124 220.180467,362.862526 220.601816,360.682105 223.382226,361.213026 224.613852,354.837785 221.822417,354.306908 222.092612,352.934440 214.766502,351.547793 215.728897,346.788329"/>
    <poly id="427915246" type="building.yes" color="255,230,230" fill="1" layer="-1.00" shape="171.120314,402.196779 178.918616,400.318966 176.262627,389.435706 168.464327,391.313519 171.120314,402.196779"/>
    <poly id="427915247" type="building.yes" color="255,230,230" fill="1" layer="-1.00" shape="156.979703,333.660694 163.116215,332.541512 161.088604,321.644706 154.952137,322.774948 156.979703,333.660694"/>
    <poly id="427915249" type="building.yes" color="255,230,230" fill="1" layer="-1.00" shape="167.381090,390.609985 175.686184,388.641691 166.516773,350.488951 158.211687,352.457245 167.381090,390.609985"/>
    <poly id="427915250" type="building.yes" color="255,230,230" fill="1" layer="-1.00" shape="185.360947,314.868643 192.400930,319.176176 195.764205,313.765753 188.713197,309.458263 185.360947,314.868643"/>
    <poly id="427915251" type="building.yes" color="255,230,230" fill="1" layer="-1.00" shape="196.799831,352.592134 205.494324,343.157018 198.678462,336.979516 193.463972,342.640576 186.004693,341.033259 184.077141,349.855436 196.799831,352.592134"/>
    <poly id="427915252" type="building.yes" color="255,230,230" fill="1" layer="-1.00" shape="169.591264,347.324784 181.578740,345.364038 177.783729,322.463431 165.807284,324.424134 169.591264,347.324784"/>
    <poly id="427915253" type="building.yes" color="255,230,230" fill="1" layer="-1.00" shape="156.381298,316.166676 163.796778,315.064554 161.497875,299.689658 154.082398,300.791781 156.381298,316.166676"/>
    <poly id="427915254" type="building.yes" color="255,230,230" fill="1" layer="-1.00" shape="140.649326,397.185624 135.813915,398.343894 138.324252,408.641569 148.766075,406.133965 147.757433,401.990582 150.885565,401.237212 149.058940,393.768106 140.324400,395.870810 140.649326,397.185624"/>
    <poly id="427915257" type="building.yes" color="255,230,230" fill="1" layer="-1.00" shape="181.541690,358.292931 187.446115,357.030888 182.243251,346.124526 179.059561,346.767522 181.541690,358.292931"/>
    <poly id="427915258" type="building.yes" color="255,230,230" fill="1" layer="-1.00" shape="158.883416,343.894410 165.008861,342.764212 163.116215,332.541512 156.979703,333.660694 158.883416,343.894410"/>
    <poly id="427915260" type="building.yes" color="255,230,230" fill="1" layer="-1.00" shape="129.993324,314.877539 141.441579,313.173307 139.924002,303.004422 128.464725,304.708698 129.993324,314.877539"/>
    <poly id="427915261" type="building.yes" color="255,230,230" fill="1" layer="-1.00" shape="188.260630,337.186630 182.484849,298.511720 175.730426,299.500635 181.506244,338.186604 188.260630,337.186630"/>
    <poly id="427915262" type="building.yes" color="255,230,230" fill="1" layer="-1.00" shape="137.351960,344.001699 144.888674,342.888041 140.551891,314.017361 133.026251,315.142035 137.351960,344.001699"/>
    <poly id="427915263" type="building.yes" color="255,230,230" fill="1" layer="-1.00" shape="140.137107,298.347462 140.805115,302.779743 147.184869,301.836555 146.482605,297.105798 143.805099,297.503478 143.023692,292.275349 139.310419,292.820901 140.137107,298.347462"/>
    <poly id="427915267" type="building.yes" color="255,230,230" fill="1" layer="-1.00" shape="140.551312,344.530967 140.415251,343.580375 132.779401,344.716543 133.526639,349.668316 141.162533,348.543207 141.060685,347.880030 144.542527,347.357513 144.044179,344.008407 140.551312,344.530967"/>
    <poly id="427915268" type="building.yes" color="255,230,230" fill="1" layer="-1.00" shape="146.496866,303.498226 142.695482,304.066246 145.084896,320.026945 154.516786,318.629297 152.116344,302.668641 151.947034,301.673941 146.349606,302.503439 146.496866,303.498226"/>
    <poly id="427915269" type="building.yes" color="255,230,230" fill="1" layer="-1.00" shape="105.524343,344.415128 112.080413,343.449130 109.747667,327.875295 103.191643,328.852353 105.524343,344.415128"/>
    <poly id="427915270" type="building.yes" color="255,230,230" fill="1" layer="-1.00" shape="134.136325,358.867542 137.341489,372.015861 143.939213,370.430352 140.734048,357.282034 134.136325,358.867542"/>
    <poly id="427915273" type="building.yes" color="255,230,230" fill="1" layer="-1.00" shape="187.635927,329.768068 192.919547,333.219897 197.106055,326.888264 191.822435,323.436436 187.635927,329.768068"/>
    <poly id="427915275" type="building.yes" color="255,230,230" fill="1" layer="-1.00" shape="128.544771,333.308663 132.456362,332.729149 130.939138,322.648740 127.038572,323.228210 128.544771,333.308663"/>
    <poly id="427915276" type="building.yes" color="255,230,230" fill="1" layer="-1.00" shape="119.067433,320.428464 129.568121,318.871759 127.360053,304.160084 116.859369,305.716790 119.067433,320.428464"/>
    <poly id="427915281" type="building.yes" color="255,230,230" fill="1" layer="-1.00" shape="163.461219,311.062283 168.408182,310.235357 167.482443,304.753427 162.535480,305.580353 163.461219,311.062283"/>
    <poly id="427915282" type="building.yes" color="255,230,230" fill="1" layer="-1.00" shape="191.673598,322.043507 195.817808,324.526594 198.786201,319.626477 194.641992,317.143391 191.673598,322.043507"/>
    <poly id="427915283" type="building.yes" color="255,230,230" fill="1" layer="-1.00" shape="170.654492,303.955642 171.899910,312.212282 177.188818,311.428241 175.195720,298.109233 169.895788,298.893318 163.571114,299.825232 164.329862,304.898615 170.654492,303.955642"/>
    <poly id="427915284" type="building.yes" color="255,230,230" fill="1" layer="-1.00" shape="114.774236,347.176641 120.536955,346.324375 119.098832,336.730279 113.336115,337.582544 114.774236,347.176641"/>
    <poly id="427915285" type="building.yes" color="255,230,230" fill="1" layer="-1.00" shape="156.919810,321.307289 164.566681,320.171072 163.796778,315.064554 156.160932,316.200727 156.919810,321.307289"/>
    <poly id="427915286" type="building.yes" color="255,230,230" fill="1" layer="-1.00" shape="145.769219,342.519589 152.744234,341.551927 149.795044,320.649774 142.820033,321.617436 145.769219,342.519589"/>
    <poly id="427915289" type="building.yes" color="255,230,230" fill="1" layer="-1.00" shape="197.417953,336.055492 222.244697,330.073511 220.888632,324.504806 196.061847,330.475727 197.417953,336.055492"/>
    <poly id="427915290" type="building.yes" color="255,230,230" fill="1" layer="-1.00" shape="173.412300,360.083578 180.505660,358.374447 179.060044,352.463247 171.966729,354.183437 173.412300,360.083578"/>
    <poly id="427915291" type="building.yes" color="255,230,230" fill="1" layer="-1.00" shape="194.684822,316.822491 200.023172,320.174566 204.986666,312.379982 199.648316,309.027908 194.684822,316.822491"/>
    <poly id="427915292" type="building.yes" color="255,230,230" fill="1" layer="-1.00" shape="159.705467,351.035700 166.151334,350.081189 165.290957,344.399926 158.856116,345.354393 159.705467,351.035700"/>
    <poly id="427915294" type="building.yes" color="255,230,230" fill="1" layer="-1.00" shape="194.125669,387.274760 201.084111,387.689615 201.518407,380.421698 194.570990,380.006799 194.125669,387.274760"/>
    <poly id="427915297" type="building.yes" color="255,230,230" fill="1" layer="-1.00" shape="179.112995,399.289649 183.331539,398.266531 182.121295,393.327649 177.913733,394.339664 179.112995,399.289649"/>
    <poly id="427917689" type="building.yes" color="255,230,230" fill="1" layer="-1.00" shape="302.073978,262.492626 309.743076,264.187569 311.194831,257.722974 303.525691,256.016972 302.073978,262.492626"/>
    <poly id="427917691" type="building.yes" color="255,230,230" fill="1" layer="-1.00" shape="265.680922,259.838608 255.995223,266.745002 262.979267,276.416684 272.675949,269.499186 265.680922,259.838608"/>
    <poly id="427917696" type="building.yes" color="255,230,230" fill="1" layer="-1.00" shape="229.609516,254.882878 228.631851,255.782581 237.101877,264.851163 243.583027,258.886470 238.711349,253.663470 242.984471,249.720375 239.386078,245.863735 235.003102,249.906801 232.487562,252.228227 231.125729,250.773741 228.247683,253.428392 229.609516,254.882878"/>
    <poly id="427917699" type="building.yes" color="255,230,230" fill="1" layer="-1.00" shape="245.478455,253.094762 249.630367,257.524314 263.877662,244.351152 259.736774,239.921558 245.478455,253.094762"/>
    <poly id="427917709" type="building.yes" color="255,230,230" fill="1" layer="-1.00" shape="225.757816,251.093597 226.997850,252.415850 233.259246,246.640042 223.161657,235.830474 216.900218,241.595221 211.539663,246.560106 220.397173,256.036364 225.757816,251.093597"/>
    <poly id="427917727" type="building.yes" color="255,230,230" fill="1" layer="-1.00" shape="321.301765,245.826987 296.481581,236.745739 294.234460,242.815335 319.209213,251.951271 312.648455,271.221075 295.238988,268.193298 294.766443,265.795221 291.659802,266.404742 290.456280,260.381988 278.580564,262.718354 279.784127,268.752169 275.840210,269.519839 276.278760,271.685798 263.059118,279.878044 252.577740,266.813827 273.766818,247.065861 268.873262,241.887190 248.101554,261.235353 247.425756,260.408553 237.776062,268.055798 252.500525,286.301266 259.412650,297.300394 278.967156,285.179010 279.630712,288.483224 282.858497,287.840045 283.409704,290.613839 295.968444,288.142053 295.406211,285.368302 298.545885,284.747590 297.848552,281.266555 323.091184,285.656834 325.247851,273.449478 333.793053,248.597738 321.737678,244.542339 321.301765,245.826987"/>
    <poly id="427918311" type="building.yes" color="255,230,230" fill="1" layer="-1.00" shape="243.438924,495.486472 244.321798,501.278243 283.680021,495.382518 282.253721,485.998506 261.230343,489.145237 265.832394,481.949301 269.479801,484.257396 273.796997,477.516033 263.540116,471.042482 265.731526,467.605313 263.034669,465.901737 264.130373,464.183153 258.449312,460.600185 260.848969,456.852521 255.543717,453.511378 252.059380,458.977582 244.134622,453.976795 225.025194,483.869266 227.224706,485.265140 221.811795,493.725081 229.703393,498.703885 235.116303,490.243943 243.438924,495.486472"/>
    <poly id="427918324" type="building.yes" color="255,230,230" fill="1" layer="-1.00" shape="309.481161,490.436259 316.654255,489.368255 315.657970,482.780636 308.473853,483.848684 309.481161,490.436259"/>
    <poly id="427918336" type="building.yes" color="255,230,230" fill="1" layer="-1.00" shape="216.002558,441.026647 219.347038,444.795819 213.161383,450.217409 222.342058,460.555050 228.527715,455.133458 238.042619,446.845298 240.877638,450.030323 248.557555,443.308834 242.123343,436.068095 246.463160,432.257456 240.339004,425.358341 235.999143,429.157920 230.572707,423.052338 217.608073,434.406615 220.210560,437.338188 216.002558,441.026647"/>
    <poly id="427918338" type="building.yes" color="255,230,230" fill="1" layer="-1.00" shape="295.735482,493.874927 306.269201,492.295938 305.318375,486.050989 294.795683,487.629934 295.735482,493.874927"/>
    <poly id="427918348" type="building.yes" color="255,230,230" fill="1" layer="-1.00" shape="218.349311,476.850673 224.460293,474.846815 222.373652,468.540002 216.251646,470.543904 218.349311,476.850673"/>
    <poly id="427918351" type="building.yes" color="255,230,230" fill="1" layer="-1.00" shape="283.394550,492.895223 289.509866,491.986246 291.040558,483.176692 287.785937,482.614471 286.675499,488.967115 282.885122,489.535101 283.394550,492.895223"/>
    <poly id="427918383" type="building.yes" color="255,230,230" fill="1" layer="-1.00" shape="308.623167,482.576231 313.328083,481.871907 312.988493,479.639198 307.898748,477.823441 307.796897,477.160264 301.163763,478.159771 301.990031,483.575738 308.623167,482.576231"/>
    <poly id="427918386" type="building.yes" color="255,230,230" fill="1" layer="-1.00" shape="227.837565,503.621758 243.946645,501.202310 243.425933,497.775874 227.316811,500.184263 227.837565,503.621758"/>
    <poly id="427919768" type="building.yes" color="255,230,230" fill="1" layer="-1.00" shape="252.834883,487.784943 256.194898,489.906162 250.983142,490.689903 252.834883,487.784943"/>
    <poly id="427919770" type="building.yes" color="255,230,230" fill="1" layer="-1.00" shape="216.155059,312.391086 213.297124,308.984959 208.132293,313.263367 209.804967,315.258548 201.061390,320.646023 205.654824,327.993584 215.443225,321.960512 217.647587,324.583990 222.801394,320.305624 220.009913,316.976652 221.086804,316.076557 217.231949,311.490991 216.155059,312.391086"/>
    <poly id="427920720" type="building.yes" color="255,230,230" fill="1" layer="-1.00" shape="90.828200,380.715744 92.226249,385.753420 90.353990,386.258508 92.031597,392.290448 112.659170,386.645870 110.981560,380.613931 108.900092,381.186204 107.423642,375.839168 110.712688,371.170045 108.509300,363.215804 101.538000,365.123514 97.067410,372.108778 91.119067,367.841152 84.147766,369.748859 86.351149,377.703100 90.828200,380.715744"/>
    <poly id="427920726" type="building.yes" color="255,230,230" fill="1" layer="-1.00" shape="132.666345,357.944344 158.141294,351.384737 156.529171,345.186644 131.043245,351.757354 132.666345,357.944344"/>
    <poly id="427920748" type="building.yes" color="255,230,230" fill="1" layer="-1.00" shape="115.423295,355.181268 120.962718,353.622067 119.744038,349.335739 114.204615,350.894939 115.423295,355.181268"/>
    <poly id="427920755" type="building.yes" color="255,230,230" fill="1" layer="-1.00" shape="94.568064,361.800000 99.746335,360.916869 98.753450,355.180833 93.575179,356.063963 94.568064,361.800000"/>
    <poly id="427920761" type="building.yes" color="255,230,230" fill="1" layer="-1.00" shape="120.032730,361.002538 131.992385,357.582041 130.248711,351.572482 118.289058,354.992979 120.032730,361.002538"/>
    <poly id="427920770" type="building.yes" color="255,230,230" fill="1" layer="-1.00" shape="107.004244,353.422898 99.711519,354.900553 100.993106,361.155251 110.599216,359.203942 109.643733,354.562664 110.381830,354.415970 109.459860,349.885155 106.397356,350.505548 107.004244,353.422898"/>
    <poly id="427920772" type="building.yes" color="255,230,230" fill="1" layer="-1.00" shape="96.779364,399.637407 94.257381,400.333078 95.856721,406.088836 117.508476,400.152656 115.920158,394.396855 115.260419,392.054816 105.249487,394.792962 104.186950,390.959462 95.068070,393.450765 96.779364,399.637407"/>
    <poly id="427944531" type="building.yes" color="255,230,230" fill="1" layer="-1.00" shape="90.962969,484.510101 93.136997,493.404530 93.955194,496.785550 98.526238,495.683631 105.112956,494.098176 102.109704,481.822770 97.031997,483.048350 90.962969,484.510101"/>
    <poly id="427944532" type="building.yes" color="255,230,230" fill="1" layer="-1.00" shape="174.356848,479.015448 172.664661,472.087734 163.941130,474.190396 165.566117,480.852944 164.387547,481.134098 166.382305,489.299298 170.061163,488.411033 170.677374,490.897019 179.511070,488.771802 176.978322,478.385738 174.356848,479.015448"/>
    <poly id="427944533" type="building.yes" color="255,230,230" fill="1" layer="-1.00" shape="85.321911,499.407642 87.081502,506.655821 87.697884,509.186046 93.447500,507.802976 92.831118,505.272752 99.131453,503.754788 99.871252,506.826448 105.598817,505.443464 103.077418,495.134772 91.060501,498.024617 85.321911,499.407642"/>
    <poly id="427944534" type="building.yes" color="255,230,230" fill="1" layer="-1.00" shape="108.406862,493.443691 111.107678,504.514790 117.088641,503.086564 116.404971,500.269054 124.599837,498.301209 125.361907,501.428079 132.378203,499.741385 131.616133,496.614515 129.598895,488.338807 122.582645,490.036561 114.387780,492.004406 108.406862,493.443691"/>
    <poly id="427944535" type="building.yes" color="255,230,230" fill="1" layer="-1.00" shape="150.460916,491.784335 148.869662,485.287548 143.208205,486.659217 132.997667,489.110602 134.577893,495.607433 135.709645,500.214836 140.875465,498.966784 139.754737,494.359338 144.788389,493.144988 145.897786,497.675061 151.559289,496.314452 150.460916,491.784335"/>
    <poly id="427944536" type="building.yes" color="255,230,230" fill="1" layer="-1.00" shape="176.595913,445.816546 185.914256,443.578811 186.194516,444.750026 192.748195,443.175747 192.467892,441.993472 188.937870,427.552458 183.672923,428.823028 182.866050,425.519381 177.248656,426.879822 178.055485,430.172410 173.076921,431.375488 176.595913,445.816546"/>
    <poly id="427944537" type="building.yes" color="255,230,230" fill="1" layer="-1.00" shape="105.554599,449.647662 104.320950,449.940091 104.791691,451.884730 99.967342,453.054010 104.349263,471.041808 115.165553,468.433197 114.011273,463.704228 120.686098,462.096302 116.494874,444.937225 112.441523,445.915444 111.825184,443.396279 104.456406,445.161783 105.554599,449.647662"/>
    <poly id="427944538" type="building.yes" color="255,230,230" fill="1" layer="-1.00" shape="140.106048,449.378311 142.364049,448.838517 140.537294,441.336232 138.279294,441.876026 138.099921,441.124679 137.304383,437.898404 131.136225,439.382673 131.281910,439.979319 126.975207,441.013840 127.614034,443.643512 126.292317,443.969469 129.889648,458.708829 141.686231,455.864082 140.106048,449.378311"/>
    <poly id="427944539" type="building.yes" color="255,230,230" fill="1" layer="-1.00" shape="155.165912,435.350396 154.661569,433.273174 148.724715,434.701233 149.722245,438.822541 148.951203,439.002545 149.388304,440.803541 145.995790,441.613254 147.620818,448.286862 151.013288,447.466089 152.716627,454.426939 163.797292,451.761972 160.031864,436.337578 159.538677,434.293492 155.165912,435.350396"/>
    <poly id="427944542" type="building.yes" color="255,230,230" fill="1" layer="-1.00" shape="116.940285,476.720924 128.329346,473.977330 126.592235,466.839659 115.203132,469.572194 116.940285,476.720924"/>
    <poly id="427944543" type="building.yes" color="255,230,230" fill="1" layer="-1.00" shape="194.326072,465.797575 202.223522,463.897249 201.629446,461.433294 193.720971,463.333664 194.326072,465.797575"/>
    <poly id="427944544" type="building.yes" color="255,230,230" fill="1" layer="-1.00" shape="128.104154,483.942974 139.151751,481.278145 137.448283,474.284117 126.389662,476.948989 128.104154,483.942974"/>
    <poly id="427944545" type="building.yes" color="255,230,230" fill="1" layer="-1.00" shape="178.529638,477.572246 187.980156,475.300810 187.229414,472.251313 177.789921,474.522705 178.529638,477.572246"/>
    <poly id="427944546" type="building.yes" color="255,230,230" fill="1" layer="-1.00" shape="188.174623,468.719542 194.563107,467.190155 193.632947,463.378251 187.255488,464.907594 188.174623,468.719542"/>
    <poly id="427944547" type="building.yes" color="255,230,230" fill="1" layer="-1.00" shape="169.689609,458.584595 174.458921,457.437644 172.206303,448.189618 167.436991,449.336569 169.689609,458.584595"/>
    <poly id="427944548" type="building.yes" color="255,230,230" fill="1" layer="-1.00" shape="118.658440,490.217973 123.747216,489.003408 123.007459,485.942807 117.918727,487.168433 118.658440,490.217973"/>
    <poly id="427944549" type="building.yes" color="255,230,230" fill="1" layer="-1.00" shape="185.948251,454.959069 196.235867,452.485245 194.184930,444.054836 183.886335,446.539763 185.948251,454.959069"/>
    <poly id="427944550" type="building.yes" color="255,230,230" fill="1" layer="-1.00" shape="177.893129,456.019482 183.323322,454.715081 182.079348,449.610438 176.649199,450.925899 177.893129,456.019482"/>
    <poly id="427944551" type="building.yes" color="255,230,230" fill="1" layer="-1.00" shape="163.130015,472.601013 172.977034,470.228475 171.867503,465.665224 162.020484,468.037761 163.130015,472.601013"/>
    <poly id="427944552" type="building.yes" color="255,230,230" fill="1" layer="-1.00" shape="157.836282,461.020367 161.955739,460.030823 160.285823,453.158319 156.166366,454.147862 157.836282,461.020367"/>
    <poly id="427944554" type="building.yes" color="255,230,230" fill="1" layer="-1.00" shape="168.325545,448.204968 173.359191,446.990614 169.885175,432.770571 164.851530,433.984925 168.325545,448.204968"/>
    <poly id="427944556" type="building.yes" color="255,230,230" fill="1" layer="-1.00" shape="117.796622,486.958782 121.651704,486.025586 120.699107,482.114234 116.844026,483.047429 117.796622,486.958782"/>
    <poly id="427944557" type="building.yes" color="255,230,230" fill="1" layer="-1.00" shape="161.555192,495.345905 166.897235,494.052915 165.070607,486.583809 159.739590,487.876756 161.555192,495.345905"/>
    <poly id="427944558" type="building.yes" color="255,230,230" fill="1" layer="-1.00" shape="132.630172,488.183044 140.208210,486.361411 139.177213,482.140698 131.599175,483.962331 132.630172,488.183044"/>
    <poly id="427944559" type="building.yes" color="255,230,230" fill="1" layer="-1.00" shape="132.646781,464.504247 139.431724,462.862704 138.086912,457.349252 131.301970,458.990795 132.646781,464.504247"/>
    <poly id="427944561" type="building.yes" color="255,230,230" fill="1" layer="-1.00" shape="171.425938,465.523195 193.355925,460.238403 192.078393,455.012236 170.148366,460.285968 171.425938,465.523195"/>
    <poly id="427944562" type="building.yes" color="255,230,230" fill="1" layer="-1.00" shape="121.230629,407.426252 128.621319,405.627478 127.377701,400.611311 119.998037,402.410041 121.230629,407.426252"/>
    <poly id="427944563" type="building.yes" color="255,230,230" fill="1" layer="-1.00" shape="198.197727,449.546673 203.705050,448.230904 198.404171,426.486458 192.896895,427.813287 198.197727,449.546673"/>
    <poly id="427944564" type="building.yes" color="255,230,230" fill="1" layer="-1.00" shape="125.374957,460.120200 129.141968,459.220530 127.270329,451.519349 123.503362,452.430078 125.374957,460.120200"/>
    <poly id="427944565" type="building.yes" color="255,230,230" fill="1" layer="-1.00" shape="141.857439,485.215743 151.407051,482.910745 148.751112,472.038543 139.201458,474.332482 141.857439,485.215743"/>
    <poly id="427944567" type="building.yes" color="255,230,230" fill="1" layer="-1.00" shape="154.759178,494.189401 160.123270,492.896324 158.722325,487.128722 153.347209,488.421842 154.759178,494.189401"/>
    <poly id="427944568" type="building.yes" color="255,230,230" fill="1" layer="-1.00" shape="115.617736,476.836750 114.060087,470.472546 108.574811,471.788216 110.121434,478.152464 115.617736,476.836750"/>
    <poly id="427944569" type="building.yes" color="255,230,230" fill="1" layer="-1.00" shape="128.980864,474.240185 148.752033,469.483758 148.102048,466.820950 128.330924,471.588437 128.980864,474.240185"/>
    <poly id="427944571" type="building.yes" color="255,230,230" fill="1" layer="-1.00" shape="106.155886,479.030797 109.845768,478.142494 108.613002,473.082045 104.923120,473.970348 106.155886,479.030797"/>
    <poly id="427944572" type="building.yes" color="255,230,230" fill="1" layer="-1.00" shape="191.601822,426.513370 197.880139,425.006537 195.694890,416.067915 189.416618,417.585807 191.601822,426.513370"/>
    <poly id="427944573" type="building.yes" color="255,230,230" fill="1" layer="-1.00" shape="116.242318,467.499928 121.099744,466.330516 120.214477,462.717508 115.357008,463.875861 116.242318,467.499928"/>