<?xml version="1.0" encoding="UTF-8"?>

<!-- generated on Thu 09 Apr 2020 11:28:07 AM WIB by Eclipse SUMO netedit Version v1_5_0+0572-38ea3d85a6
<configuration xmlns:xsi="http://www.w3.org/2001/XMLSchema-instance" xsi:noNamespaceSchemaLocation="http://sumo.dlr.de/xsd/netconvertConfiguration.xsd">

    <input>
        <sumo-net-file value="osm.net.xml"/>
    </input>

    <output>
        <output-file value="osm.net.xml"/>
        <output.street-names value="true"/>
    </output>

    <processing>
        <geometry.min-radius.fix.railways value="false"/>
        <geometry.max-grade.fix value="false"/>
        <offset.disable-normalization value="true"/>
        <lefthand value="false"/>
    </processing>

    <junctions>
        <no-turnarounds value="true"/>
        <junctions.corner-detail value="5"/>
        <junctions.limit-turn-speed value="5.5"/>
        <rectangular-lane-cut value="false"/>
    </junctions>

    <pedestrian>
        <walkingareas value="false"/>
    </pedestrian>

    <report>
        <aggregate-warnings value="5"/>
    </report>

</configuration>
-->

<net version="1.6" junctionCornerDetail="5" limitTurnSpeed="5.50" xmlns:xsi="http://www.w3.org/2001/XMLSchema-instance" xsi:noNamespaceSchemaLocation="http://sumo.dlr.de/xsd/net_file.xsd">

    <location netOffset="-679795.25,882503.70" convBoundary="0.00,96.35,630.67,812.68" origBoundary="112.631246,-7.980530,112.637792,-7.973187" projParameter="+proj=utm +zone=49 +ellps=WGS84 +datum=WGS84 +units=m +no_defs"/>

    <type id="highway.bridleway" priority="1" numLanes="1" speed="2.78" allow="pedestrian" oneway="1" width="2.00"/>
    <type id="highway.bus_guideway" priority="1" numLanes="1" speed="27.78" allow="bus" oneway="1"/>
    <type id="highway.cycleway" priority="1" numLanes="1" speed="8.33" allow="bicycle" oneway="0" width="1.00"/>
    <type id="highway.footway" priority="1" numLanes="1" speed="2.78" allow="pedestrian" oneway="1" width="2.00"/>
    <type id="highway.ford" priority="1" numLanes="1" speed="2.78" allow="army" oneway="0"/>
    <type id="highway.living_street" priority="2" numLanes="1" speed="2.78" disallow="tram rail_urban rail rail_electric rail_fast ship" oneway="0"/>
    <type id="highway.motorway" priority="14" numLanes="2" speed="39.44" allow="private emergency authority army vip passenger hov taxi bus coach delivery truck trailer motorcycle evehicle custom1 custom2" oneway="1"/>
    <type id="highway.motorway_link" priority="9" numLanes="1" speed="22.22" allow="private emergency authority army vip passenger hov taxi bus coach delivery truck trailer motorcycle evehicle custom1 custom2" oneway="1"/>
    <type id="highway.path" priority="1" numLanes="1" speed="2.78" allow="pedestrian bicycle" oneway="1" width="2.00"/>
    <type id="highway.pedestrian" priority="1" numLanes="1" speed="2.78" allow="pedestrian" oneway="1" width="2.00"/>
    <type id="highway.primary" priority="12" numLanes="2" speed="27.78" disallow="tram rail_urban rail rail_electric rail_fast ship" oneway="0"/>
    <type id="highway.primary_link" priority="7" numLanes="1" speed="22.22" disallow="tram rail_urban rail rail_electric rail_fast ship" oneway="0"/>
    <type id="highway.raceway" priority="15" numLanes="2" speed="83.33" allow="vip" oneway="0"/>
    <type id="highway.residential" priority="3" numLanes="1" speed="13.89" disallow="tram rail_urban rail rail_electric rail_fast ship" oneway="0"/>
    <type id="highway.secondary" priority="11" numLanes="1" speed="27.78" disallow="tram rail_urban rail rail_electric rail_fast ship" oneway="0"/>
    <type id="highway.secondary_link" priority="6" numLanes="1" speed="22.22" disallow="tram rail_urban rail rail_electric rail_fast ship" oneway="0"/>
    <type id="highway.service" priority="1" numLanes="1" speed="5.56" allow="pedestrian delivery bicycle" oneway="0"/>
    <type id="highway.stairs" priority="1" numLanes="1" speed="1.39" allow="pedestrian" oneway="1" width="2.00"/>
    <type id="highway.step" priority="1" numLanes="1" speed="1.39" allow="pedestrian" oneway="1" width="2.00"/>
    <type id="highway.steps" priority="1" numLanes="1" speed="1.39" allow="pedestrian" oneway="1" width="2.00"/>
    <type id="highway.tertiary" priority="10" numLanes="1" speed="22.22" disallow="tram rail_urban rail rail_electric rail_fast ship" oneway="0"/>
    <type id="highway.tertiary_link" priority="5" numLanes="1" speed="22.22" disallow="tram rail_urban rail rail_electric rail_fast ship" oneway="0"/>
    <type id="highway.track" priority="1" numLanes="1" speed="5.56" disallow="tram rail_urban rail rail_electric rail_fast ship" oneway="0"/>
    <type id="highway.trunk" priority="13" numLanes="2" speed="27.78" disallow="pedestrian bicycle tram rail_urban rail rail_electric rail_fast ship" oneway="0"/>
    <type id="highway.trunk_link" priority="8" numLanes="1" speed="22.22" disallow="pedestrian bicycle tram rail_urban rail rail_electric rail_fast ship" oneway="0"/>
    <type id="highway.unclassified" priority="4" numLanes="1" speed="13.89" disallow="tram rail_urban rail rail_electric rail_fast ship" oneway="0"/>
    <type id="highway.unsurfaced" priority="1" numLanes="1" speed="8.33" disallow="tram rail_urban rail rail_electric rail_fast ship" oneway="0"/>
    <type id="railway.highspeed" priority="21" numLanes="1" speed="69.44" allow="rail_fast" oneway="1"/>
    <type id="railway.light_rail" priority="19" numLanes="1" speed="27.78" allow="rail_urban" oneway="1"/>
    <type id="railway.preserved" priority="16" numLanes="1" speed="27.78" allow="rail" oneway="1"/>
    <type id="railway.rail" priority="20" numLanes="1" speed="44.44" allow="rail" oneway="1"/>
    <type id="railway.subway" priority="18" numLanes="1" speed="27.78" allow="rail_urban" oneway="1"/>
    <type id="railway.tram" priority="17" numLanes="1" speed="13.89" allow="tram" oneway="1"/>

    <edge id=":1390876258_0" function="internal">
        <lane id=":1390876258_0_0" index="0" disallow="tram rail_urban rail rail_electric rail_fast ship" speed="3.65" length="4.67" shape="371.21,812.18 370.82,813.57 370.19,814.20 369.30,814.07 368.17,813.18"/>
    </edge>
    <edge id=":1390930068_0" function="internal">
        <lane id=":1390930068_0_0" index="0" disallow="tram rail_urban rail rail_electric rail_fast ship" speed="3.65" length="4.67" shape="479.39,572.13 478.65,573.37 477.87,573.81 477.05,573.45 476.19,572.29"/>
    </edge>
    <edge id=":1392003090_0" function="internal">
        <lane id=":1392003090_0_0" index="0" disallow="tram rail_urban rail rail_electric rail_fast ship" speed="27.78" length="5.29" shape="243.93,369.65 243.69,371.20 243.57,372.27 243.54,373.34 243.57,374.91"/>
    </edge>
    <edge id=":1619763435_0" function="internal">
        <lane id=":1619763435_0_0" index="0" disallow="tram rail_urban rail rail_electric rail_fast ship" speed="3.65" length="4.67" shape="567.51,525.24 566.74,526.46 565.95,526.88 565.14,526.50 564.31,525.32"/>
    </edge>
    <edge id=":1619763453_0" function="internal">
        <lane id=":1619763453_0_0" index="0" disallow="tram rail_urban rail rail_electric rail_fast ship" speed="27.78" length="5.36" shape="278.92,436.36 280.31,437.12 281.30,437.59 282.33,437.96 283.85,438.41"/>
    </edge>
    <edge id=":1619763466_0" function="internal">
        <lane id=":1619763466_0_0" index="0" disallow="tram rail_urban rail rail_electric rail_fast ship" speed="27.78" length="5.05" shape="357.16,426.30 360.90,422.91"/>
    </edge>
    <edge id=":1619763597_0" function="internal">
        <lane id=":1619763597_0_0" index="0" disallow="tram rail_urban rail rail_electric rail_fast ship" speed="27.78" length="5.25" shape="373.27,348.41 372.66,346.98 372.20,346.01 371.67,345.08 370.86,343.75"/>
    </edge>
    <edge id=":1619763660_0" function="internal">
        <lane id=":1619763660_0_0" index="0" disallow="tram rail_urban rail rail_electric rail_fast ship" speed="27.78" length="5.22" shape="294.77,311.03 293.28,311.44 292.26,311.76 291.27,312.13 289.84,312.72"/>
    </edge>
    <edge id=":1619763664_0" function="internal">
        <lane id=":1619763664_0_0" index="0" disallow="tram rail_urban rail rail_electric rail_fast ship" speed="27.78" length="5.43" shape="302.11,309.83 300.50,309.84 299.40,309.90 298.31,310.10 296.75,310.50"/>
    </edge>
    <edge id=":1626744325_0" function="internal">
        <lane id=":1626744325_0_0" index="0" disallow="tram rail_urban rail rail_electric rail_fast ship" speed="10.65" length="12.94" shape="215.43,281.12 213.38,279.73 210.63,278.91 207.19,278.67 203.06,279.00"/>
    </edge>
    <edge id=":1626744325_1" function="internal">
        <lane id=":1626744325_1_0" index="0" disallow="tram rail_urban rail rail_electric rail_fast ship" speed="27.78" length="15.54" shape="215.43,281.12 212.75,278.38 210.09,275.48 207.49,272.52 205.00,269.61"/>
    </edge>
    <edge id=":1626744325_2" function="internal">
        <lane id=":1626744325_2_0" index="0" disallow="tram rail_urban rail rail_electric rail_fast ship" speed="3.65" length="2.34" shape="215.43,281.12 215.13,279.71 215.41,278.86"/>
    </edge>
    <edge id=":1626744325_9" function="internal">
        <lane id=":1626744325_9_0" index="0" disallow="tram rail_urban rail rail_electric rail_fast ship" speed="3.65" length="2.34" shape="215.41,278.86 216.26,278.57 217.67,278.85"/>
    </edge>
    <edge id=":1626744325_3" function="internal">
        <lane id=":1626744325_3_0" index="0" disallow="tram rail_urban rail rail_electric rail_fast ship" speed="27.78" length="15.26" shape="207.44,267.54 209.90,270.42 212.43,273.31 215.03,276.13 217.67,278.85"/>
    </edge>
    <edge id=":1626744325_4" function="internal">
        <lane id=":1626744325_4_0" index="0" disallow="tram rail_urban rail rail_electric rail_fast ship" speed="7.39" length="6.65" shape="207.44,267.54 210.26,271.90 210.35,273.35"/>
    </edge>
    <edge id=":1626744325_5" function="internal">
        <lane id=":1626744325_5_0" index="0" disallow="tram rail_urban rail rail_electric rail_fast ship" speed="3.65" length="2.34" shape="207.44,267.54 207.60,268.97 207.25,269.79"/>
    </edge>
    <edge id=":1626744325_10" function="internal">
        <lane id=":1626744325_10_0" index="0" disallow="tram rail_urban rail rail_electric rail_fast ship" speed="7.39" length="10.48" shape="210.35,273.35 210.47,275.26 208.07,277.63 203.06,279.00"/>
    </edge>
    <edge id=":1626744325_11" function="internal">
        <lane id=":1626744325_11_0" index="0" disallow="tram rail_urban rail rail_electric rail_fast ship" speed="3.65" length="2.34" shape="207.25,269.79 206.38,270.01 205.00,269.61"/>
    </edge>
    <edge id=":1626744325_6" function="internal">
        <lane id=":1626744325_6_0" index="0" disallow="tram rail_urban rail rail_electric rail_fast ship" speed="5.62" length="9.29" shape="202.62,275.83 205.34,275.08 206.64,273.80 206.53,271.98 205.00,269.61"/>
    </edge>
    <edge id=":1626744325_7" function="internal">
        <lane id=":1626744325_7_0" index="0" disallow="tram rail_urban rail rail_electric rail_fast ship" speed="11.74" length="15.86" shape="202.62,275.83 207.51,275.47 211.65,275.86 215.03,276.98 217.67,278.85"/>
    </edge>
    <edge id=":1626744325_8" function="internal">
        <lane id=":1626744325_8_0" index="0" disallow="tram rail_urban rail rail_electric rail_fast ship" speed="3.65" length="4.67" shape="202.62,275.83 203.92,276.45 204.43,277.19 204.14,278.04 203.06,279.00"/>
    </edge>
    <edge id=":2515790434_0" function="internal">
        <lane id=":2515790434_0_0" index="0" disallow="tram rail_urban rail rail_electric rail_fast ship" speed="3.65" length="4.67" shape="629.07,96.30 629.91,95.13 630.72,94.75 631.51,95.18 632.27,96.40"/>
    </edge>
    <edge id=":2515790441_0" function="internal">
        <lane id=":2515790441_0_0" index="0" disallow="tram rail_urban rail rail_electric rail_fast ship" speed="3.65" length="4.67" shape="593.88,759.65 593.03,760.81 592.21,761.18 591.43,760.75 590.68,759.51"/>
    </edge>
    <edge id=":2583203189_0" function="internal">
        <lane id=":2583203189_0_0" index="0" disallow="tram rail_urban rail rail_electric rail_fast ship" speed="7.77" length="10.79" shape="588.60,315.98 586.07,316.80 584.17,318.35 582.91,320.63 582.29,323.64"/>
    </edge>
    <edge id=":2583203189_1" function="internal">
        <lane id=":2583203189_1_0" index="0" disallow="tram rail_urban rail rail_electric rail_fast ship" speed="27.78" length="15.26" shape="588.60,315.98 573.56,318.53"/>
    </edge>
    <edge id=":2583203189_2" function="internal">
        <lane id=":2583203189_2_0" index="0" disallow="tram rail_urban rail rail_electric rail_fast ship" speed="6.96" length="12.13" shape="588.60,315.98 584.63,316.20 581.84,315.42 580.23,313.62 579.79,310.82"/>
    </edge>
    <edge id=":2583203189_3" function="internal">
        <lane id=":2583203189_3_0" index="0" disallow="tram rail_urban rail rail_electric rail_fast ship" speed="13.89" length="12.69" shape="582.98,310.96 582.29,323.64"/>
    </edge>
    <edge id=":2583203189_4" function="internal">
        <lane id=":2583203189_4_0" index="0" disallow="tram rail_urban rail rail_electric rail_fast ship" speed="8.41" length="13.09" shape="582.98,310.96 582.29,313.66 580.49,315.82 577.58,317.44 573.56,318.53"/>
    </edge>
    <edge id=":2583203189_5" function="internal">
        <lane id=":2583203189_5_0" index="0" disallow="tram rail_urban rail rail_electric rail_fast ship" speed="3.65" length="4.67" shape="582.98,310.96 582.13,312.13 581.31,312.49 580.53,312.05 579.79,310.82"/>
    </edge>
    <edge id=":2583203189_6" function="internal">
        <lane id=":2583203189_6_0" index="0" disallow="tram rail_urban rail rail_electric rail_fast ship" speed="6.02" length="9.10" shape="579.09,323.47 578.95,320.90 577.98,319.22 576.18,318.43 573.56,318.53"/>
    </edge>
    <edge id=":2583203189_7" function="internal">
        <lane id=":2583203189_7_0" index="0" disallow="tram rail_urban rail rail_electric rail_fast ship" speed="13.89" length="12.67" shape="579.09,323.47 579.79,310.82"/>
    </edge>
    <edge id=":2583203189_8" function="internal">
        <lane id=":2583203189_8_0" index="0" disallow="tram rail_urban rail rail_electric rail_fast ship" speed="3.65" length="4.68" shape="579.09,323.47 579.96,322.31 580.78,321.96 581.56,322.40 582.29,323.64"/>
    </edge>
    <edge id=":3635159858_0" function="internal">
        <lane id=":3635159858_0_0" index="0" disallow="tram rail_urban rail rail_electric rail_fast ship" speed="3.65" length="4.67" shape="470.62,218.69 471.50,217.55 472.33,217.20 473.10,217.66 473.82,218.91"/>
    </edge>
    <edge id=":3646364132_0" function="internal">
        <lane id=":3646364132_0_0" index="0" disallow="tram rail_urban rail rail_electric rail_fast ship" speed="27.78" length="9.26" shape="243.71,381.79 243.79,384.53 243.91,386.41 244.14,388.28 244.55,391.00"/>
    </edge>
    <edge id=":3646364132_1" function="internal">
        <lane id=":3646364132_1_0" index="0" disallow="tram rail_urban rail rail_electric rail_fast ship" speed="6.63" length="7.87" shape="243.71,381.79 243.59,384.48 243.08,386.51 242.18,387.87 240.91,388.56"/>
    </edge>
    <edge id=":3646364132_2" function="internal">
        <lane id=":3646364132_2_0" index="0" disallow="tram rail_urban rail rail_electric rail_fast ship" speed="6.00" length="8.00" shape="240.15,385.45 241.71,385.49 242.96,386.42 243.91,388.26 244.55,391.00"/>
    </edge>
    <edge id=":3646364132_3" function="internal">
        <lane id=":3646364132_3_0" index="0" disallow="tram rail_urban rail rail_electric rail_fast ship" speed="3.65" length="4.67" shape="240.15,385.45 241.51,385.95 242.09,386.63 241.89,387.50 240.91,388.56"/>
    </edge>
    <edge id=":3646364148_0" function="internal">
        <lane id=":3646364148_0_0" index="0" disallow="tram rail_urban rail rail_electric rail_fast ship" speed="6.05" length="7.85" shape="317.08,447.44 317.31,445.99 318.37,444.88 320.28,444.11 323.03,443.67"/>
    </edge>
    <edge id=":3646364148_1" function="internal">
        <lane id=":3646364148_1_0" index="0" disallow="tram rail_urban rail rail_electric rail_fast ship" speed="3.65" length="4.67" shape="317.08,447.44 317.73,446.16 318.48,445.67 319.32,445.97 320.26,447.07"/>
    </edge>
    <edge id=":3646364148_2" function="internal">
        <lane id=":3646364148_2_0" index="0" disallow="tram rail_urban rail rail_electric rail_fast ship" speed="27.78" length="9.40" shape="313.66,444.46 323.03,443.67"/>
    </edge>
    <edge id=":3646364148_3" function="internal">
        <lane id=":3646364148_3_0" index="0" disallow="tram rail_urban rail rail_electric rail_fast ship" speed="6.17" length="7.81" shape="313.66,444.46 316.41,444.43 318.42,444.85 319.70,445.73 320.26,447.07"/>
    </edge>
    <edge id=":3646364152_0" function="internal">
        <lane id=":3646364152_0_0" index="0" disallow="tram rail_urban rail rail_electric rail_fast ship" speed="19.13" length="5.66" shape="333.77,312.14 332.27,311.40 331.19,310.99 330.06,310.76 328.39,310.55"/>
    </edge>
    <edge id=":3646364152_1" function="internal">
        <lane id=":3646364152_1_0" index="0" disallow="tram rail_urban rail rail_electric rail_fast ship" speed="5.45" length="4.89" shape="333.77,312.14 332.74,311.42 332.09,310.49 331.83,309.36 331.96,308.02"/>
    </edge>
    <edge id=":3646364158_0" function="internal">
        <lane id=":3646364158_0_0" index="0" disallow="tram rail_urban rail rail_electric rail_fast ship" speed="27.78" length="9.43" shape="269.28,324.18 262.08,330.27"/>
    </edge>
    <edge id=":3646364158_1" function="internal">
        <lane id=":3646364158_1_0" index="0" disallow="tram rail_urban rail rail_electric rail_fast ship" speed="6.37" length="7.94" shape="269.28,324.18 267.07,325.78 265.16,326.60 263.54,326.63 262.22,325.89"/>
    </edge>
    <edge id=":3646364158_2" function="internal">
        <lane id=":3646364158_2_0" index="0" disallow="tram rail_urban rail rail_electric rail_fast ship" speed="5.98" length="1.46" shape="264.44,323.59 265.20,324.84"/>
    </edge>
    <edge id=":3646364158_3" function="internal">
        <lane id=":3646364158_3_0" index="0" disallow="tram rail_urban rail rail_electric rail_fast ship" speed="3.65" length="1.44" shape="264.44,323.59 264.75,325.00"/>
    </edge>
    <edge id=":3646364158_4" function="internal">
        <lane id=":3646364158_4_0" index="0" disallow="tram rail_urban rail rail_electric rail_fast ship" speed="5.98" length="6.58" shape="265.20,324.84 265.26,324.94 265.14,326.51 264.08,328.28 262.08,330.27"/>
    </edge>
    <edge id=":3646364158_5" function="internal">
        <lane id=":3646364158_5_0" index="0" disallow="tram rail_urban rail rail_electric rail_fast ship" speed="3.65" length="3.23" shape="264.75,325.00 264.48,325.85 263.64,326.15 262.22,325.89"/>
    </edge>
    <edge id=":5601564229_0" function="internal">
        <lane id=":5601564229_0_0" index="0" disallow="tram rail_urban rail rail_electric rail_fast ship" speed="3.65" length="4.67" shape="244.76,437.39 244.17,436.08 244.26,435.19 245.02,434.72 246.46,434.69"/>
    </edge>
    <edge id=":5601564232_0" function="internal">
        <lane id=":5601564232_0_0" index="0" disallow="tram rail_urban rail rail_electric rail_fast ship" speed="13.89" length="14.71" shape="300.40,497.31 285.97,500.14"/>
    </edge>
    <edge id=":5601564232_1" function="internal">
        <lane id=":5601564232_1_0" index="0" disallow="tram rail_urban rail rail_electric rail_fast ship" speed="7.55" length="6.14" shape="300.40,497.31 295.91,497.53 294.41,496.85"/>
    </edge>
    <edge id=":5601564232_2" function="internal">
        <lane id=":5601564232_2_0" index="0" disallow="tram rail_urban rail rail_electric rail_fast ship" speed="3.65" length="2.34" shape="300.40,497.31 299.07,496.75 298.53,496.04"/>
    </edge>
    <edge id=":5601564232_9" function="internal">
        <lane id=":5601564232_9_0" index="0" disallow="tram rail_urban rail rail_electric rail_fast ship" speed="7.55" length="9.44" shape="294.41,496.85 292.91,496.18 291.38,493.25 291.33,488.76"/>
    </edge>
    <edge id=":5601564232_10" function="internal">
        <lane id=":5601564232_10_0" index="0" disallow="tram rail_urban rail rail_electric rail_fast ship" speed="3.65" length="2.34" shape="298.53,496.04 298.77,495.18 299.80,494.16"/>
    </edge>
    <edge id=":5601564232_3" function="internal">
        <lane id=":5601564232_3_0" index="0" disallow="tram rail_urban rail rail_electric rail_fast ship" speed="5.93" length="9.10" shape="294.50,489.18 294.53,491.80 295.42,493.50 297.18,494.29 299.80,494.16"/>
    </edge>
    <edge id=":5601564232_4" function="internal">
        <lane id=":5601564232_4_0" index="0" disallow="tram rail_urban rail rail_electric rail_fast ship" speed="9.39" length="14.90" shape="294.50,489.18 293.50,493.42 291.75,496.67 289.24,498.91 285.97,500.14"/>
    </edge>
    <edge id=":5601564232_5" function="internal">
        <lane id=":5601564232_5_0" index="0" disallow="tram rail_urban rail rail_electric rail_fast ship" speed="3.65" length="4.67" shape="294.50,489.18 293.55,490.26 292.71,490.56 291.96,490.05 291.33,488.76"/>
    </edge>
    <edge id=":5601564232_6" function="internal">
        <lane id=":5601564232_6_0" index="0" disallow="tram rail_urban rail rail_electric rail_fast ship" speed="8.10" length="10.91" shape="285.34,497.01 287.60,496.11 289.36,494.44 290.60,491.99 291.33,488.76"/>
    </edge>
    <edge id=":5601564232_7" function="internal">
        <lane id=":5601564232_7_0" index="0" disallow="tram rail_urban rail rail_electric rail_fast ship" speed="13.89" length="14.74" shape="285.34,497.01 299.80,494.16"/>
    </edge>
    <edge id=":5601564232_8" function="internal">
        <lane id=":5601564232_8_0" index="0" disallow="tram rail_urban rail rail_electric rail_fast ship" speed="3.65" length="2.34" shape="285.34,497.01 286.67,497.55 287.22,498.26"/>
    </edge>
    <edge id=":5601564232_11" function="internal">
        <lane id=":5601564232_11_0" index="0" disallow="tram rail_urban rail rail_electric rail_fast ship" speed="3.65" length="2.34" shape="287.22,498.26 286.99,499.12 285.97,500.14"/>
    </edge>
    <edge id=":5601564233_0" function="internal">
        <lane id=":5601564233_0_0" index="0" disallow="tram rail_urban rail rail_electric rail_fast ship" speed="3.65" length="4.67" shape="249.36,533.10 248.70,534.38 247.95,534.87 247.11,534.56 246.18,533.46"/>
    </edge>
    <edge id=":5601564235_0" function="internal">
        <lane id=":5601564235_0_0" index="0" disallow="tram rail_urban rail rail_electric rail_fast ship" speed="6.35" length="9.04" shape="323.15,498.74 322.50,496.32 321.24,494.75 319.36,494.02 316.86,494.14"/>
    </edge>
    <edge id=":5601564235_1" function="internal">
        <lane id=":5601564235_1_0" index="0" disallow="tram rail_urban rail rail_electric rail_fast ship" speed="13.89" length="14.42" shape="323.15,498.74 321.45,484.42"/>
    </edge>
    <edge id=":5601564235_2" function="internal">
        <lane id=":5601564235_2_0" index="0" disallow="tram rail_urban rail rail_electric rail_fast ship" speed="3.65" length="2.34" shape="323.15,498.74 323.80,497.45 324.55,496.96"/>
    </edge>
    <edge id=":5601564235_9" function="internal">
        <lane id=":5601564235_9_0" index="0" disallow="tram rail_urban rail rail_electric rail_fast ship" speed="3.65" length="2.34" shape="324.55,496.96 325.39,497.26 326.32,498.36"/>
    </edge>
    <edge id=":5601564235_3" function="internal">
        <lane id=":5601564235_3_0" index="0" disallow="tram rail_urban rail rail_electric rail_fast ship" speed="13.89" length="14.42" shape="324.63,484.04 326.32,498.36"/>
    </edge>
    <edge id=":5601564235_4" function="internal">
        <lane id=":5601564235_4_0" index="0" disallow="tram rail_urban rail rail_electric rail_fast ship" speed="8.25" length="5.80" shape="324.63,484.04 324.52,487.83 323.68,489.67"/>
    </edge>
    <edge id=":5601564235_5" function="internal">
        <lane id=":5601564235_5_0" index="0" disallow="tram rail_urban rail rail_electric rail_fast ship" speed="3.65" length="2.34" shape="324.63,484.04 323.98,485.33 323.23,485.82"/>
    </edge>
    <edge id=":5601564235_10" function="internal">
        <lane id=":5601564235_10_0" index="0" disallow="tram rail_urban rail rail_electric rail_fast ship" speed="8.25" length="8.50" shape="323.68,489.67 323.18,490.77 320.63,492.87 316.86,494.14"/>
    </edge>
    <edge id=":5601564235_11" function="internal">
        <lane id=":5601564235_11_0" index="0" disallow="tram rail_urban rail rail_electric rail_fast ship" speed="3.65" length="2.34" shape="323.23,485.82 322.39,485.52 321.45,484.42"/>
    </edge>
    <edge id=":5601564235_6" function="internal">
        <lane id=":5601564235_6_0" index="0" disallow="tram rail_urban rail rail_electric rail_fast ship" speed="6.80" length="9.41" shape="316.25,491.00 318.77,490.16 320.47,488.79 321.37,486.87 321.45,484.42"/>
    </edge>
    <edge id=":5601564235_7" function="internal">
        <lane id=":5601564235_7_0" index="0" disallow="tram rail_urban rail rail_electric rail_fast ship" speed="7.88" length="14.48" shape="316.25,491.00 320.25,490.81 323.27,491.97 325.29,494.49 326.32,498.36"/>
    </edge>
    <edge id=":5601564235_8" function="internal">
        <lane id=":5601564235_8_0" index="0" disallow="tram rail_urban rail rail_electric rail_fast ship" speed="3.65" length="4.67" shape="316.25,491.00 317.58,491.55 318.12,492.26 317.88,493.13 316.86,494.14"/>
    </edge>
    <edge id=":604401778_0" function="internal">
        <lane id=":604401778_0_0" index="0" disallow="tram rail_urban rail rail_electric rail_fast ship" speed="3.65" length="4.67" shape="34.68,439.64 33.32,439.16 32.74,438.48 32.93,437.60 33.90,436.54"/>
    </edge>
    <edge id=":604401845_0" function="internal">
        <lane id=":604401845_0_0" index="0" disallow="tram rail_urban rail rail_electric rail_fast ship" speed="27.78" length="13.62" shape="627.06,191.44 626.25,194.88 625.61,198.09 625.10,201.33 624.68,204.84"/>
    </edge>
    <edge id=":604401845_1" function="internal">
        <lane id=":604401845_1_0" index="0" disallow="tram rail_urban rail rail_electric rail_fast ship" speed="8.00" length="5.64" shape="627.06,191.44 625.61,195.00 624.35,196.28"/>
    </edge>
    <edge id=":604401845_2" function="internal">
        <lane id=":604401845_2_0" index="0" disallow="tram rail_urban rail rail_electric rail_fast ship" speed="3.65" length="2.34" shape="627.06,191.44 625.99,192.41 625.12,192.61"/>
    </edge>
    <edge id=":604401845_9" function="internal">
        <lane id=":604401845_9_0" index="0" disallow="tram rail_urban rail rail_electric rail_fast ship" speed="8.00" length="8.40" shape="624.35,196.28 623.37,197.26 620.34,198.22 616.51,197.88"/>
    </edge>
    <edge id=":604401845_10" function="internal">
        <lane id=":604401845_10_0" index="0" disallow="tram rail_urban rail rail_electric rail_fast ship" speed="3.65" length="2.34" shape="625.12,192.61 624.44,192.02 623.95,190.67"/>
    </edge>
    <edge id=":604401845_3" function="internal">
        <lane id=":604401845_3_0" index="0" disallow="tram rail_urban rail rail_electric rail_fast ship" speed="6.51" length="8.94" shape="617.24,194.77 619.68,194.98 621.61,194.37 623.03,192.93 623.95,190.67"/>
    </edge>
    <edge id=":604401845_4" function="internal">
        <lane id=":604401845_4_0" index="0" disallow="tram rail_urban rail rail_electric rail_fast ship" speed="8.31" length="13.91" shape="617.24,194.77 620.81,196.12 623.24,198.25 624.53,201.16 624.68,204.84"/>
    </edge>
    <edge id=":604401845_5" function="internal">
        <lane id=":604401845_5_0" index="0" disallow="tram rail_urban rail rail_electric rail_fast ship" speed="3.65" length="4.67" shape="617.24,194.77 618.23,195.82 618.44,196.69 617.87,197.38 616.51,197.88"/>
    </edge>
    <edge id=":604401845_6" function="internal">
        <lane id=":604401845_6_0" index="0" disallow="tram rail_urban rail rail_electric rail_fast ship" speed="6.87" length="9.20" shape="621.49,204.50 621.39,202.09 620.53,200.19 618.90,198.78 616.51,197.88"/>
    </edge>
    <edge id=":604401845_7" function="internal">
        <lane id=":604401845_7_0" index="0" disallow="tram rail_urban rail rail_electric rail_fast ship" speed="27.78" length="14.06" shape="621.49,204.50 621.93,200.93 622.46,197.54 623.13,194.18 623.95,190.67"/>
    </edge>
    <edge id=":604401845_8" function="internal">
        <lane id=":604401845_8_0" index="0" disallow="tram rail_urban rail rail_electric rail_fast ship" speed="3.65" length="2.34" shape="621.49,204.50 622.42,203.39 623.25,203.08"/>
    </edge>
    <edge id=":604401845_11" function="internal">
        <lane id=":604401845_11_0" index="0" disallow="tram rail_urban rail rail_electric rail_fast ship" speed="3.65" length="2.34" shape="623.25,203.08 624.01,203.56 624.68,204.84"/>
    </edge>
    <edge id=":604401851_0" function="internal">
        <lane id=":604401851_0_0" index="0" disallow="tram rail_urban rail rail_electric rail_fast ship" speed="27.78" length="9.95" shape="612.48,331.78 612.01,341.72"/>
    </edge>
    <edge id=":604401851_1" function="internal">
        <lane id=":604401851_1_0" index="0" disallow="tram rail_urban rail rail_electric rail_fast ship" speed="3.65" length="2.34" shape="612.48,331.78 611.63,332.94 610.81,333.30"/>
    </edge>
    <edge id=":604401851_6" function="internal">
        <lane id=":604401851_6_0" index="0" disallow="tram rail_urban rail rail_electric rail_fast ship" speed="3.65" length="2.34" shape="610.81,333.30 610.03,332.87 609.29,331.63"/>
    </edge>
    <edge id=":604401851_2" function="internal">
        <lane id=":604401851_2_0" index="0" disallow="tram rail_urban rail rail_electric rail_fast ship" speed="6.72" length="8.41" shape="603.84,336.98 606.14,336.40 607.81,335.31 608.86,333.72 609.29,331.63"/>
    </edge>
    <edge id=":604401851_3" function="internal">